models/39bus_psse/39bus.raw
@!IC, SBASE,REV,XFRRAT,NXFRAT,BASFRQ
0,   100.00, 34,     0,     1, 60.00     / PSS(R)E-34.8    FRI, DEC 09 2022  16:22
NEW ENGLAND TEST SYSTEM, 39 BUSES, 9 GENERATORS
CREATED BY PABLO LEDESMA PABLOLE@ING.UC3M.ES
GENERAL, THRSHZ=0.0001, PQBRAK=0.7, BLOWUP=5.0
GAUSS, ITMX=100, ACCP=1.6, ACCQ=1.6, ACCM=1.0, TOL=0.0001
NEWTON, ITMXN=20, ACCN=1.0, TOLN=0.1, VCTOLQ=0.1, VCTOLV=0.00001, DVLIM=0.99, NDVFCT=0.99
ADJUST, ADJTHR=0.005, ACCTAP=1.0, TAPLIM=0.05, SWVBND=100.0, MXTPSS=99, MXSWIM=10
TYSL, ITMXTY=20, ACCTY=1.0, TOLTY=0.00001
RATING, 1, "RATE1 ", "RATING SET 1                    "
RATING, 2, "RATE2 ", "RATING SET 2                    "
RATING, 3, "RATE3 ", "RATING SET 3                    "
RATING, 4, "RATE4 ", "RATING SET 4                    "
RATING, 5, "RATE5 ", "RATING SET 5                    "
RATING, 6, "RATE6 ", "RATING SET 6                    "
RATING, 7, "RATE7 ", "RATING SET 7                    "
RATING, 8, "RATE8 ", "RATING SET 8                    "
RATING, 9, "RATE9 ", "RATING SET 9                    "
RATING,10, "RATE10", "RATING SET 10                   "
RATING,11, "RATE11", "RATING SET 11                   "
RATING,12, "RATE12", "RATING SET 12                   "
0 / END OF SYSTEM-WIDE DATA, BEGIN BUS DATA
@!   I,'NAME        ', BASKV, IDE,AREA,ZONE,OWNER, VM,        VA,    NVHI,   NVLO,   EVHI,   EVLO
     1,'            ',   1.0000,1,   1,   1,   1,1.03263,  -9.3745,1.10000,0.90000,1.10000,0.90000
     2,'            ',   1.0000,1,   1,   1,   1,1.01018,  -6.5755,1.10000,0.90000,1.10000,0.90000
     3,'            ',   1.0000,1,   1,   1,   1,0.97155,  -9.6251,1.10000,0.90000,1.10000,0.90000
     4,'            ',   1.0000,1,   1,   2,   1,0.92803, -10.4714,1.10000,0.90000,1.10000,0.90000
     5,'            ',   1.0000,1,   1,   2,   1,0.91321,  -8.9915,1.10000,0.90000,1.10000,0.90000
     6,'            ',   1.0000,1,   1,   2,   1,0.91418,  -8.1231,1.10000,0.90000,1.10000,0.90000
     7,'            ',   1.0000,1,   1,   2,   1,0.85819, -10.6810,1.10000,0.90000,1.10000,0.90000
     8,'            ',   1.0000,1,   1,   2,   1,0.87598, -11.4125,1.10000,0.90000,1.10000,0.90000
     9,'            ',   1.0000,1,   1,   1,   1,0.97872, -11.2119,1.10000,0.90000,1.10000,0.90000
    10,'            ',   1.0000,1,   1,   2,   1,0.93541,  -5.3629,1.10000,0.90000,1.10000,0.90000
    11,'            ',   1.0000,1,   1,   2,   1,0.92688,  -6.2964,1.10000,0.90000,1.10000,0.90000
    12,'            ',   1.0000,1,   1,   2,   1,0.90879,  -6.3369,1.10000,0.90000,1.10000,0.90000
    13,'            ',   1.0000,1,   1,   2,   1,0.93296,  -6.2223,1.10000,0.90000,1.10000,0.90000
    14,'            ',   1.0000,1,   1,   2,   1,0.93265,  -8.2337,1.10000,0.90000,1.10000,0.90000
    15,'            ',   1.0000,1,   1,   1,   1,0.93708,  -8.7778,1.10000,0.90000,1.10000,0.90000
    16,'            ',   1.0000,1,   1,   1,   1,0.95541,  -7.1588,1.10000,0.90000,1.10000,0.90000
    17,'            ',   1.0000,1,   1,   1,   1,0.96494,  -8.3561,1.10000,0.90000,1.10000,0.90000
    18,'            ',   1.0000,1,   1,   1,   1,0.96592,  -9.3302,1.10000,0.90000,1.10000,0.90000
    19,'            ',   1.0000,1,   1,   1,   1,0.97874,  -1.8217,1.10000,0.90000,1.10000,0.90000
    20,'            ',   1.0000,1,   1,   1,   1,0.98040,  -3.2696,1.10000,0.90000,1.10000,0.90000
    21,'            ',   1.0000,1,   1,   1,   1,0.97212,  -4.4736,1.10000,0.90000,1.10000,0.90000
    22,'            ',   1.0000,1,   1,   1,   1,1.00938,   0.3664,1.10000,0.90000,1.10000,0.90000
    23,'            ',   1.0000,1,   1,   1,   1,1.00754,   0.1349,1.10000,0.90000,1.10000,0.90000
    24,'            ',   1.0000,1,   1,   1,   1,0.96662,  -7.0350,1.10000,0.90000,1.10000,0.90000
    25,'            ',   1.0000,1,   1,   1,   1,1.01951,  -5.1198,1.10000,0.90000,1.10000,0.90000
    26,'            ',   1.0000,1,   1,   1,   1,0.99919,  -6.3844,1.10000,0.90000,1.10000,0.90000
    27,'            ',   1.0000,1,   1,   1,   1,0.97694,  -8.5765,1.10000,0.90000,1.10000,0.90000
    28,'            ',   1.0000,1,   1,   1,   1,1.00139,  -2.5327,1.10000,0.90000,1.10000,0.90000
    29,'            ',   1.0000,1,   1,   1,   1,1.00350,   0.4823,1.10000,0.90000,1.10000,0.90000
    30,'            ',   1.0000,2,   1,   1,   1,1.04750,  -4.1246,1.10000,0.90000,1.10000,0.90000
    31,'            ',   1.0000,2,   1,   2,   1,1.04000,   0.4014,1.10000,0.90000,1.10000,0.90000
    32,'            ',   1.0000,2,   1,   2,   1,0.98310,   2.7640,1.10000,0.90000,1.10000,0.90000
    33,'            ',   1.0000,2,   1,   1,   1,0.99720,   3.4018,1.10000,0.90000,1.10000,0.90000
    34,'            ',   1.0000,2,   1,   1,   1,1.01230,   1.9247,1.10000,0.90000,1.10000,0.90000
    35,'            ',   1.0000,2,   1,   1,   1,1.04930,   5.4011,1.10000,0.90000,1.10000,0.90000
    36,'            ',   1.0000,2,   1,   1,   1,1.06350,   8.2405,1.10000,0.90000,1.10000,0.90000
    37,'            ',   1.0000,2,   1,   1,   1,1.02780,   1.7287,1.10000,0.90000,1.10000,0.90000
    38,'            ',   1.0000,2,   1,   1,   1,1.02650,   7.6315,1.10000,0.90000,1.10000,0.90000
    39,'            ',   1.0000,3,   1,   1,   1,1.03000, -10.9600,1.10000,0.90000,1.10000,0.90000
0 / END OF BUS DATA, BEGIN LOAD DATA
@!   I,'ID',STAT,AREA,ZONE,      PL,        QL,        IP,        IQ,        YP,        YQ, OWNER,SCALE,INTRPT,  DGENP,     DGENQ, DGENF
     3,'1 ',   1,   1,   1,   322.000,     2.400,     0.000,     0.000,     0.000,     0.000,   1,    1,  0,     0.000,     0.000,   0
     4,'1 ',   1,   1,   2,   500.000,   184.000,     0.000,     0.000,     0.000,     0.000,   1,    1,  0,     0.000,     0.000,   0
     7,'1 ',   1,   1,   2,   233.800,   840.000,     0.000,     0.000,     0.000,     0.000,   1,    1,  0,     0.000,     0.000,   0
     8,'1 ',   1,   1,   2,   522.000,   176.000,     0.000,     0.000,     0.000,     0.000,   1,    1,  0,     0.000,     0.000,   0
    12,'1 ',   1,   1,   2,     8.500,    88.000,     0.000,     0.000,     0.000,     0.000,   1,    1,  0,     0.000,     0.000,   0
    15,'1 ',   1,   1,   1,   320.000,   153.000,     0.000,     0.000,     0.000,     0.000,   1,    1,  0,     0.000,     0.000,   0
    16,'1 ',   1,   1,   1,   329.400,   323.000,     0.000,     0.000,     0.000,     0.000,   1,    1,  0,     0.000,     0.000,   0
    18,'1 ',   1,   1,   1,   158.000,    30.000,     0.000,     0.000,     0.000,     0.000,   1,    1,  0,     0.000,     0.000,   0
    20,'1 ',   1,   1,   1,   680.000,   103.000,     0.000,     0.000,     0.000,     0.000,   1,    1,  0,     0.000,     0.000,   0
    21,'1 ',   1,   1,   1,   274.000,   115.000,     0.000,     0.000,     0.000,     0.000,   1,    1,  0,     0.000,     0.000,   0
    23,'1 ',   1,   1,   1,   247.500,    84.600,     0.000,     0.000,     0.000,     0.000,   1,    1,  0,     0.000,     0.000,   0
    24,'1 ',   1,   1,   1,   308.600,   -92.200,     0.000,     0.000,     0.000,     0.000,   1,    1,  0,     0.000,     0.000,   0
    25,'1 ',   1,   1,   1,   224.000,    47.200,     0.000,     0.000,     0.000,     0.000,   1,    1,  0,     0.000,     0.000,   0
    26,'1 ',   1,   1,   1,   139.000,    17.000,     0.000,     0.000,     0.000,     0.000,   1,    1,  0,     0.000,     0.000,   0
    27,'1 ',   1,   1,   1,   281.000,    75.500,     0.000,     0.000,     0.000,     0.000,   1,    1,  0,     0.000,     0.000,   0
    28,'1 ',   1,   1,   1,   206.000,    27.600,     0.000,     0.000,     0.000,     0.000,   1,    1,  0,     0.000,     0.000,   0
    29,'1 ',   1,   1,   1,   283.500,   126.900,     0.000,     0.000,     0.000,     0.000,   1,    1,  0,     0.000,     0.000,   0
    31,'1 ',   1,   1,   2,     9.200,     4.600,     0.000,     0.000,     0.000,     0.000,   1,    1,  0,     0.000,     0.000,   0
    39,'1 ',   1,   1,   1,  1104.000,   250.000,     0.000,     0.000,     0.000,     0.000,   1,    1,  0,     0.000,     0.000,   0
0 / END OF LOAD DATA, BEGIN FIXED SHUNT DATA
@!   I,'ID',STATUS,  GL,        BL
     4,'1 ',1,     0.000,   100.000
     5,'1 ',1,     0.000,   200.000
0 / END OF FIXED SHUNT DATA, BEGIN GENERATOR DATA
@!   I,'ID',      PG,        QG,        QT,        QB,     VS,    IREG,     MBASE,     ZR,         ZX,         RT,         XT,     GTAP,STAT, RMPCT,      PT,        PB,    O1,    F1,  O2,    F2,  O3,    F3,  O4,    F4,WMOD, WPF,NREG
    30,'G ',   250.000,   221.358,   800.000,  -500.000,1.04750,    30,  1000.000, 1.40000E-3, 2.00000E-1, 0.00000E+0, 0.00000E+0,1.00000,1,  100.0,  9999.900,     0.000,   1,1.0000
    31,'G ',   572.930,   570.030,   800.000,  -500.000,1.04000,    31,  1000.000, 2.70000E-2, 2.00000E-1, 0.00000E+0, 0.00000E+0,1.00000,1,  100.0,  9999.900,     0.000,   1,1.0000
    32,'G ',   650.000,   280.596,   800.000,  -500.000,0.98310,    32,  1000.000, 3.86000E-3, 2.00000E-1, 0.00000E+0, 0.00000E+0,1.00000,1,  100.0,  9999.900,     0.000,   1,1.0000
    33,'G ',   632.000,   127.003,   800.000,  -500.000,0.99720,    33,  1000.000, 2.22000E-3, 2.00000E-1, 0.00000E+0, 0.00000E+0,1.00000,1,  100.0,  9999.900,     0.000,   1,1.0000
    34,'G ',   508.000,   176.650,   400.000,  -300.000,1.01230,    34,  1000.000, 1.40000E-3, 2.00000E-1, 0.00000E+0, 0.00000E+0,1.00000,1,  100.0,  9999.900,     0.000,   1,1.0000
    35,'G ',   650.000,   321.498,   800.000,  -500.000,1.04930,    35,  1000.000, 6.15000E-2, 2.00000E-1, 0.00000E+0, 0.00000E+0,1.00000,1,  100.0,  9999.900,     0.000,   1,1.0000
    36,'G ',   560.000,   247.865,   800.000,  -500.000,1.06350,    36,  1000.000, 2.68000E-3, 2.00000E-1, 0.00000E+0, 0.00000E+0,1.00000,1,  100.0,  9999.900,     0.000,   1,1.0000
    37,'G ',   540.000,    55.007,   800.000,  -500.000,1.02780,    37,  1000.000, 6.86000E-3, 2.00000E-1, 0.00000E+0, 0.00000E+0,1.00000,1,  100.0,  9999.900,     0.000,   1,1.0000
    38,'G ',   830.000,   160.133,   800.000,  -500.000,1.02650,    38,  1000.000, 3.00000E-3, 2.00000E-1, 0.00000E+0, 0.00000E+0,1.00000,1,  100.0,  9999.900,     0.000,   1,1.0000
    39,'G ',  1012.247,   352.359,  1500.000, -1000.000,1.03000,    39,  2000.000, 1.00000E-3, 2.00000E-2, 0.00000E+0, 0.00000E+0,1.00000,1,  100.0,  9999.900,     0.000,   1,1.0000
0 / END OF GENERATOR DATA, BEGIN BRANCH DATA
@!   I,     J,'CKT',     R,          X,         B,                    'N A M E'                 ,   RATE1,   RATE2,   RATE3,   RATE4,   RATE5,   RATE6,   RATE7,   RATE8,   RATE9,  RATE10,  RATE11,  RATE12,    GI,       BI,       GJ,       BJ,STAT,MET,  LEN,  O1,  F1,    O2,  F2,    O3,  F3,    O4,  F4
     1,     2,'1 ', 3.50000E-03, 4.11000E-02,   0.69870,'                                        ',    0.00,    0.00,    1.00,    0.00,    0.00,    0.00,    0.00,    0.00,    0.00,    0.00,    0.00,    0.00,  0.00000,  0.00000,  0.00000,  0.00000,1,1,   0.00,   1,1.0000
     1,    39,'1 ', 1.00000E-03, 2.50000E-02,   0.75000,'                                        ',    0.00,    0.00,    1.00,    0.00,    0.00,    0.00,    0.00,    0.00,    0.00,    0.00,    0.00,    0.00,  0.00000,  0.00000,  0.00000,  0.00000,1,1,   0.00,   1,1.0000
     2,     3,'1 ', 1.30000E-03, 1.51000E-02,   0.25720,'                                        ',    0.00,    0.00,    1.00,    0.00,    0.00,    0.00,    0.00,    0.00,    0.00,    0.00,    0.00,    0.00,  0.00000,  0.00000,  0.00000,  0.00000,1,1,   0.00,   1,1.0000
     2,    25,'1 ', 7.00000E-03, 8.60000E-03,   0.14600,'                                        ',    0.00,    0.00,    1.00,    0.00,    0.00,    0.00,    0.00,    0.00,    0.00,    0.00,    0.00,    0.00,  0.00000,  0.00000,  0.00000,  0.00000,1,1,   0.00,   1,1.0000
     3,     4,'1 ', 1.30000E-03, 2.13000E-02,   0.22140,'                                        ',    0.00,    0.00,    1.00,    0.00,    0.00,    0.00,    0.00,    0.00,    0.00,    0.00,    0.00,    0.00,  0.00000,  0.00000,  0.00000,  0.00000,1,1,   0.00,   1,1.0000
     3,    18,'1 ', 1.10000E-03, 1.33000E-02,   0.21380,'                                        ',    0.00,    0.00,    1.00,    0.00,    0.00,    0.00,    0.00,    0.00,    0.00,    0.00,    0.00,    0.00,  0.00000,  0.00000,  0.00000,  0.00000,1,1,   0.00,   1,1.0000
     4,     5,'1 ', 8.00000E-04, 1.28000E-02,   0.13420,'                                        ',    0.00,    0.00,    1.00,    0.00,    0.00,    0.00,    0.00,    0.00,    0.00,    0.00,    0.00,    0.00,  0.00000,  0.00000,  0.00000,  0.00000,1,1,   0.00,   1,1.0000
     4,    14,'1 ', 8.00000E-04, 1.29000E-02,   0.13820,'                                        ',    0.00,    0.00,    1.00,    0.00,    0.00,    0.00,    0.00,    0.00,    0.00,    0.00,    0.00,    0.00,  0.00000,  0.00000,  0.00000,  0.00000,1,1,   0.00,   1,1.0000
     5,     6,'1 ', 2.00000E-04, 2.60000E-03,   0.04340,'                                        ',    0.00,    0.00,    1.00,    0.00,    0.00,    0.00,    0.00,    0.00,    0.00,    0.00,    0.00,    0.00,  0.00000,  0.00000,  0.00000,  0.00000,1,2,   0.00,   1,1.0000
     5,     8,'1 ', 8.00000E-04, 1.12000E-02,   0.14760,'                                        ',    0.00,    0.00,    1.00,    0.00,    0.00,    0.00,    0.00,    0.00,    0.00,    0.00,    0.00,    0.00,  0.00000,  0.00000,  0.00000,  0.00000,1,1,   0.00,   1,1.0000
     6,     7,'1 ', 6.00000E-04, 9.20000E-03,   0.11300,'                                        ',    0.00,    0.00,    1.00,    0.00,    0.00,    0.00,    0.00,    0.00,    0.00,    0.00,    0.00,    0.00,  0.00000,  0.00000,  0.00000,  0.00000,1,1,   0.00,   1,1.0000
     6,    11,'1 ', 7.00000E-04, 8.20000E-03,   0.13890,'                                        ',    0.00,    0.00,    1.00,    0.00,    0.00,    0.00,    0.00,    0.00,    0.00,    0.00,    0.00,    0.00,  0.00000,  0.00000,  0.00000,  0.00000,1,1,   0.00,   1,1.0000
     7,     8,'1 ', 4.00000E-04, 4.60000E-03,   0.07800,'                                        ',    0.00,    0.00,    1.00,    0.00,    0.00,    0.00,    0.00,    0.00,    0.00,    0.00,    0.00,    0.00,  0.00000,  0.00000,  0.00000,  0.00000,1,1,   0.00,   1,1.0000
     8,     9,'1 ', 2.30000E-03, 3.63000E-02,   0.38040,'                                        ',    0.00,    0.00,    1.00,    0.00,    0.00,    0.00,    0.00,    0.00,    0.00,    0.00,    0.00,    0.00,  0.00000,  0.00000,  0.00000,  0.00000,1,1,   0.00,   1,1.0000
     9,    39,'1 ', 1.00000E-03, 2.50000E-02,   1.20000,'                                        ',    0.00,    0.00,    1.00,    0.00,    0.00,    0.00,    0.00,    0.00,    0.00,    0.00,    0.00,    0.00,  0.00000,  0.00000,  0.00000,  0.00000,1,1,   0.00,   1,1.0000
    10,    11,'1 ', 4.00000E-04, 4.30000E-03,   0.07290,'                                        ',    0.00,    0.00,    1.00,    0.00,    0.00,    0.00,    0.00,    0.00,    0.00,    0.00,    0.00,    0.00,  0.00000,  0.00000,  0.00000,  0.00000,1,1,   0.00,   1,1.0000
    10,    13,'1 ', 4.00000E-04, 4.30000E-03,   0.07290,'                                        ',    0.00,    0.00,    1.00,    0.00,    0.00,    0.00,    0.00,    0.00,    0.00,    0.00,    0.00,    0.00,  0.00000,  0.00000,  0.00000,  0.00000,1,1,   0.00,   1,1.0000
    13,    14,'1 ', 9.00000E-04, 1.01000E-02,   0.17230,'                                        ',    0.00,    0.00,    1.00,    0.00,    0.00,    0.00,    0.00,    0.00,    0.00,    0.00,    0.00,    0.00,  0.00000,  0.00000,  0.00000,  0.00000,1,1,   0.00,   1,1.0000
    14,    15,'1 ', 1.80000E-03, 2.17000E-02,   0.36600,'                                        ',    0.00,    0.00,    1.00,    0.00,    0.00,    0.00,    0.00,    0.00,    0.00,    0.00,    0.00,    0.00,  0.00000,  0.00000,  0.00000,  0.00000,1,1,   0.00,   1,1.0000
    15,    16,'1 ', 9.00000E-04, 9.40000E-03,   0.17100,'                                        ',    0.00,    0.00,    1.00,    0.00,    0.00,    0.00,    0.00,    0.00,    0.00,    0.00,    0.00,    0.00,  0.00000,  0.00000,  0.00000,  0.00000,1,1,   0.00,   1,1.0000
    16,    17,'1 ', 7.00000E-04, 8.90000E-03,   0.13420,'                                        ',    0.00,    0.00,    1.00,    0.00,    0.00,    0.00,    0.00,    0.00,    0.00,    0.00,    0.00,    0.00,  0.00000,  0.00000,  0.00000,  0.00000,1,1,   0.00,   1,1.0000
    16,    19,'1 ', 1.60000E-03, 1.95000E-02,   0.30400,'                                        ',    0.00,    0.00,    1.00,    0.00,    0.00,    0.00,    0.00,    0.00,    0.00,    0.00,    0.00,    0.00,  0.00000,  0.00000,  0.00000,  0.00000,1,1,   0.00,   1,1.0000
    16,    21,'1 ', 8.00000E-04, 1.35000E-02,   0.25480,'                                        ',    0.00,    0.00,    1.00,    0.00,    0.00,    0.00,    0.00,    0.00,    0.00,    0.00,    0.00,    0.00,  0.00000,  0.00000,  0.00000,  0.00000,1,1,   0.00,   1,1.0000
    16,    24,'1 ', 3.00000E-04, 5.90000E-03,   0.06800,'                                        ',    0.00,    0.00,    1.00,    0.00,    0.00,    0.00,    0.00,    0.00,    0.00,    0.00,    0.00,    0.00,  0.00000,  0.00000,  0.00000,  0.00000,1,1,   0.00,   1,1.0000
    17,    18,'1 ', 7.00000E-04, 8.20000E-03,   0.13190,'                                        ',    0.00,    0.00,    1.00,    0.00,    0.00,    0.00,    0.00,    0.00,    0.00,    0.00,    0.00,    0.00,  0.00000,  0.00000,  0.00000,  0.00000,1,1,   0.00,   1,1.0000
    17,    27,'1 ', 1.30000E-03, 1.73000E-02,   0.32160,'                                        ',    0.00,    0.00,    1.00,    0.00,    0.00,    0.00,    0.00,    0.00,    0.00,    0.00,    0.00,    0.00,  0.00000,  0.00000,  0.00000,  0.00000,1,1,   0.00,   1,1.0000
    21,    22,'1 ', 8.00000E-04, 1.40000E-02,   0.25650,'                                        ',    0.00,    0.00,    1.00,    0.00,    0.00,    0.00,    0.00,    0.00,    0.00,    0.00,    0.00,    0.00,  0.00000,  0.00000,  0.00000,  0.00000,1,1,   0.00,   1,1.0000
    22,    23,'1 ', 6.00000E-04, 9.60000E-03,   0.18460,'                                        ',    0.00,    0.00,    1.00,    0.00,    0.00,    0.00,    0.00,    0.00,    0.00,    0.00,    0.00,    0.00,  0.00000,  0.00000,  0.00000,  0.00000,1,1,   0.00,   1,1.0000
    23,    24,'1 ', 2.20000E-03, 3.50000E-02,   0.36100,'                                        ',    0.00,    0.00,    1.00,    0.00,    0.00,    0.00,    0.00,    0.00,    0.00,    0.00,    0.00,    0.00,  0.00000,  0.00000,  0.00000,  0.00000,1,1,   0.00,   1,1.0000
    25,    26,'1 ', 3.20000E-03, 3.23000E-02,   0.51300,'                                        ',    0.00,    0.00,    1.00,    0.00,    0.00,    0.00,    0.00,    0.00,    0.00,    0.00,    0.00,    0.00,  0.00000,  0.00000,  0.00000,  0.00000,1,1,   0.00,   1,1.0000
    26,    27,'1 ', 1.40000E-03, 1.47000E-02,   0.23960,'                                        ',    0.00,    0.00,    1.00,    0.00,    0.00,    0.00,    0.00,    0.00,    0.00,    0.00,    0.00,    0.00,  0.00000,  0.00000,  0.00000,  0.00000,1,1,   0.00,   1,1.0000
    26,    28,'1 ', 4.30000E-03, 4.74000E-02,   0.78020,'                                        ',    0.00,    0.00,    1.00,    0.00,    0.00,    0.00,    0.00,    0.00,    0.00,    0.00,    0.00,    0.00,  0.00000,  0.00000,  0.00000,  0.00000,1,1,   0.00,   1,1.0000
    26,    29,'1 ', 5.70000E-03, 6.25000E-02,   1.02900,'                                        ',    0.00,    0.00,    1.00,    0.00,    0.00,    0.00,    0.00,    0.00,    0.00,    0.00,    0.00,    0.00,  0.00000,  0.00000,  0.00000,  0.00000,1,1,   0.00,   1,1.0000
    28,    29,'1 ', 1.40000E-03, 1.51000E-02,   0.24900,'                                        ',    0.00,    0.00,    1.00,    0.00,    0.00,    0.00,    0.00,    0.00,    0.00,    0.00,    0.00,    0.00,  0.00000,  0.00000,  0.00000,  0.00000,1,1,   0.00,   1,1.0000
0 / END OF BRANCH DATA, BEGIN SYSTEM SWITCHING DEVICE DATA
@!   I,     J,'CKT',          X,   RATE1,   RATE2,   RATE3,   RATE4,   RATE5,   RATE6,   RATE7,   RATE8,   RATE9,  RATE10,  RATE11,  RATE12, STAT,NSTAT,  MET,STYPE,'NAME'
0 / END OF SYSTEM SWITCHING DEVICE DATA, BEGIN TRANSFORMER DATA
@!   I,     J,     K,'CKT',CW,CZ,CM,     MAG1,        MAG2,NMETR,               'N A M E',               STAT,O1,  F1,    O2,  F2,    O3,  F3,    O4,  F4,     'VECGRP', ZCOD
@!   R1-2,       X1-2,   SBASE1-2,     R2-3,       X2-3,   SBASE2-3,     R3-1,       X3-1,   SBASE3-1, VMSTAR,   ANSTAR
@!WINDV1,  NOMV1,    ANG1,  RATE1-1,  RATE1-2,  RATE1-3,  RATE1-4,  RATE1-5,  RATE1-6,  RATE1-7,  RATE1-8,  RATE1-9, RATE1-10, RATE1-11, RATE1-12,COD1,CONT1,   RMA1,    RMI1,    VMA1,    VMI1, NTP1,TAB1,  CR1,     CX1,   CNXA1,NOD1
@!WINDV2,  NOMV2,    ANG2,  RATE2-1,  RATE2-2,  RATE2-3,  RATE2-4,  RATE2-5,  RATE2-6,  RATE2-7,  RATE2-8,  RATE2-9, RATE2-10, RATE2-11, RATE2-12,COD2,CONT2,   RMA2,    RMI2,    VMA2,    VMI2, NTP2,TAB2,  CR2,     CX2,   CNXA2,NOD2
@!WINDV3,  NOMV3,    ANG3,  RATE3-1,  RATE3-2,  RATE3-3,  RATE3-4,  RATE3-5,  RATE3-6,  RATE3-7,  RATE3-8,  RATE3-9, RATE3-10, RATE3-11, RATE3-12,COD3,CONT3,   RMA3,    RMI3,    VMA3,    VMI3, NTP3,TAB3,  CR3,     CX3,   CNXA3,NOD3
     2,    30,     0,'1 ', 1, 1, 1, 0.00000E+00, 0.00000E+00,2,'                                        ',1,   1,1.0000,   0,1.0000,   0,1.0000,   0,1.0000,'            '
 0.00000E+00, 1.81000E-02,   100.00
1.00000,   0.000,   0.000,     0.00,     0.00,     0.00,     0.00,     0.00,     0.00,     0.00,     0.00,     0.00,     0.00,     0.00,     0.00, 0,      0, 1.20000, 0.80000, 1.20000, 0.80000,   8, 0, 0.00000, 0.00000,  0.000,   0
1.00000,   0.000
    31,     6,     0,'1 ', 1, 1, 1, 0.00000E+00, 0.00000E+00,2,'                                        ',1,   1,1.0000,   0,1.0000,   0,1.0000,   0,1.0000,'            '
 0.00000E+00, 2.50000E-02,   100.00
0.97143,   0.000,   0.000,     0.00,     0.00,     0.00,     0.00,     0.00,     0.00,     0.00,     0.00,     0.00,     0.00,     0.00,     0.00, 1,      6, 1.20000, 0.80000, 1.17000, 0.98000,   8, 0, 0.00000, 0.00000,  0.000,   0
1.00000,   0.000
    10,    32,     0,'1 ', 1, 1, 1, 0.00000E+00, 0.00000E+00,2,'                                        ',1,   1,1.0000,   0,1.0000,   0,1.0000,   0,1.0000,'            '
 0.00000E+00, 2.00000E-02,   100.00
1.00000,   0.000,   0.000,     0.00,     0.00,     0.00,     0.00,     0.00,     0.00,     0.00,     0.00,     0.00,     0.00,     0.00,     0.00, 0,      0, 1.20000, 0.80000, 1.20000, 0.80000,   8, 0, 0.00000, 0.00000,  0.000,   0
1.00000,   0.000
    12,    11,     0,'1 ', 1, 1, 1, 0.00000E+00, 0.00000E+00,2,'                                        ',1,   1,1.0000,   0,1.0000,   0,1.0000,   0,1.0000,'            '
 1.60000E-03, 4.35000E-02,   100.00
1.00000,   0.000,   0.000,     0.00,     0.00,     0.00,     0.00,     0.00,     0.00,     0.00,     0.00,     0.00,     0.00,     0.00,     0.00, 0,      0, 1.20000, 0.80000, 1.20000, 0.80000,   8, 0, 0.00000, 0.00000,  0.000,   0
1.00000,   0.000
    12,    13,     0,'1 ', 1, 1, 1, 0.00000E+00, 0.00000E+00,2,'                                        ',1,   1,1.0000,   0,1.0000,   0,1.0000,   0,1.0000,'            '
 1.60000E-03, 4.35000E-02,   100.00
1.00000,   0.000,   0.000,     0.00,     0.00,     0.00,     0.00,     0.00,     0.00,     0.00,     0.00,     0.00,     0.00,     0.00,     0.00, 0,      0, 1.20000, 0.80000, 1.20000, 0.80000,   8, 0, 0.00000, 0.00000,  0.000,   0
1.00000,   0.000
    19,    20,     0,'1 ', 1, 1, 1, 0.00000E+00, 0.00000E+00,2,'                                        ',1,   1,1.0000,   0,1.0000,   0,1.0000,   0,1.0000,'            '
 7.00000E-04, 1.38000E-02,   100.00
1.00000,   0.000,   0.000,     0.00,     0.00,     0.00,     0.00,     0.00,     0.00,     0.00,     0.00,     0.00,     0.00,     0.00,     0.00, 0,      0, 1.20000, 0.80000, 1.20000, 0.80000,   8, 0, 0.00000, 0.00000,  0.000,   0
1.00000,   0.000
    19,    33,     0,'1 ', 1, 1, 1, 0.00000E+00, 0.00000E+00,2,'                                        ',1,   1,1.0000,   0,1.0000,   0,1.0000,   0,1.0000,'            '
 7.00000E-04, 1.42000E-02,   100.00
1.00000,   0.000,   0.000,     0.00,     0.00,     0.00,     0.00,     0.00,     0.00,     0.00,     0.00,     0.00,     0.00,     0.00,     0.00, 0,      0, 1.20000, 0.80000, 1.20000, 0.80000,   8, 0, 0.00000, 0.00000,  0.000,   0
1.00000,   0.000
    20,    34,     0,'1 ', 1, 1, 1, 0.00000E+00, 0.00000E+00,2,'                                        ',1,   1,1.0000,   0,1.0000,   0,1.0000,   0,1.0000,'            '
 9.00000E-04, 1.80000E-02,   100.00
1.00000,   0.000,   0.000,     0.00,     0.00,     0.00,     0.00,     0.00,     0.00,     0.00,     0.00,     0.00,     0.00,     0.00,     0.00, 0,      0, 1.20000, 0.80000, 1.20000, 0.80000,   8, 0, 0.00000, 0.00000,  0.000,   0
1.00000,   0.000
    22,    35,     0,'1 ', 1, 1, 1, 0.00000E+00, 0.00000E+00,2,'                                        ',1,   1,1.0000,   0,1.0000,   0,1.0000,   0,1.0000,'            '
 0.00000E+00, 1.43000E-02,   100.00
1.00000,   0.000,   0.000,     0.00,     0.00,     0.00,     0.00,     0.00,     0.00,     0.00,     0.00,     0.00,     0.00,     0.00,     0.00, 0,      0, 1.20000, 0.80000, 1.20000, 0.80000,   8, 0, 0.00000, 0.00000,  0.000,   0
1.00000,   0.000
    23,    36,     0,'1 ', 1, 1, 1, 0.00000E+00, 0.00000E+00,2,'                                        ',1,   1,1.0000,   0,1.0000,   0,1.0000,   0,1.0000,'            '
 5.00000E-04, 2.72000E-02,   100.00
1.00000,   0.000,   0.000,     0.00,     0.00,     0.00,     0.00,     0.00,     0.00,     0.00,     0.00,     0.00,     0.00,     0.00,     0.00, 0,      0, 1.20000, 0.80000, 1.20000, 0.80000,   8, 0, 0.00000, 0.00000,  0.000,   0
1.00000,   0.000
    25,    37,     0,'1 ', 1, 1, 1, 0.00000E+00, 0.00000E+00,2,'                                        ',1,   1,1.0000,   0,1.0000,   0,1.0000,   0,1.0000,'            '
 6.00000E-04, 2.32000E-02,   100.00
1.00000,   0.000,   0.000,     0.00,     0.00,     0.00,     0.00,     0.00,     0.00,     0.00,     0.00,     0.00,     0.00,     0.00,     0.00, 0,      0, 1.20000, 0.80000, 1.20000, 0.80000,   8, 0, 0.00000, 0.00000,  0.000,   0
1.00000,   0.000
    29,    38,     0,'1 ', 1, 1, 1, 0.00000E+00, 0.00000E+00,2,'                                        ',1,   1,1.0000,   0,1.0000,   0,1.0000,   0,1.0000,'            '
 8.00000E-04, 1.56000E-02,   100.00
1.00000,   0.000,   0.000,     0.00,     0.00,     0.00,     0.00,     0.00,     0.00,     0.00,     0.00,     0.00,     0.00,     0.00,     0.00, 0,      0, 1.20000, 0.80000, 1.20000, 0.80000,   8, 0, 0.00000, 0.00000,  0.000,   0
1.00000,   0.000
0 / END OF TRANSFORMER DATA, BEGIN AREA DATA
@! I,   ISW,     PDES,      PTOL,    'ARNAME'
0 / END OF AREA DATA, BEGIN TWO-TERMINAL DC DATA
@!  'NAME',   MDC,     RDC,      SETVL,     VSCHD,     VCMOD,     RCOMP,    DELTI,METER    DCVMIN,CCCITMX, CCCACC
@! IPR,NBR,ANMXR,ANMNR,   RCR,    XCR,  EBASR,  TRR,    TAPR,   TMXR,   TMNR,   STPR,    ICR,   IFR,   ITR,'IDR', XCAPR,NDR
@! IPI,NBI,ANMXI,ANMNI,   RCI,    XCI,  EBASI,  TRI,    TAPI,   TMXI,   TMNI,   STPI,    ICI,   IFI,   ITI,'IDI', XCAPI,NDI
0 / END OF TWO-TERMINAL DC DATA, BEGIN VSC DC LINE DATA
@!  'NAME',   MDC,     RDC,   O1,  F1,    O2,  F2,    O3,  F3,    O4,  F4
@!IBUS,TYPE,MODE,     DCSET,   ACSET,     ALOSS,     BLOSS,   MINLOSS,     SMAX,      IMAX,   PWF,        MAXQ,      MINQ, VSREG,  RMPCT,NREG
0 / END OF VSC DC LINE DATA, BEGIN IMPEDANCE CORRECTION DATA
@!I,   T1,    Re(F1),  Im(F1),    T2,    Re(F2),  Im(F2),    T3,    Re(F3),  Im(F3),    T4,    Re(F4),  Im(F4),    T5,    Re(F5),  Im(F5),    T6,    Re(F6),  Im(F6)
@!     T7,    Re(F7),  Im(F7),    T8,    Re(F8),  Im(F8),    T9,    Re(F9),  Im(F9),    T10,  Re(F10), Im(F10),    T11,  Re(F11), Im(F11),    T12,  Re(F12), Im(F12)
@!      ...
0 / END OF IMPEDANCE CORRECTION DATA, BEGIN MULTI-TERMINAL DC DATA
@!  'NAME',    NCONV,NDCBS,NDCLN,  MDC, VCONV,     VCMOD, VCONVN
@!  IB, N,ANGMX,ANGMN,    RC,      XC,    EBAS,   TR,    TAP,    TPMX,   TPMN,   TSTP,     SETVL,   DCPF,    MARG,CNVCOD
@!IDC, IB,AREA,ZONE,   'DCNAME',  IDC2,   RGRND,OWNER
@!IDC,JDC,'DCCKT',MET,   RDC,        LDC
0 / END OF MULTI-TERMINAL DC DATA, BEGIN MULTI-SECTION LINE DATA
@!   I,     J,'ID',MET,DUM1,  DUM2,  DUM3,  DUM4,  DUM5,  DUM6,  DUM7,  DUM8,  DUM9
0 / END OF MULTI-SECTION LINE DATA, BEGIN ZONE DATA
@! I,   'ZONAME'
   1,'EXTERNAL    '
   2,'LOAD CENTER '
0 / END OF ZONE DATA, BEGIN INTER-AREA TRANSFER DATA
@!ARFROM,ARTO,'TRID', PTRAN
0 / END OF INTER-AREA TRANSFER DATA, BEGIN OWNER DATA
@! I,   'OWNAME'
0 / END OF OWNER DATA, BEGIN FACTS DEVICE DATA
@!  'NAME',         I,     J,MODE,   PDES,      QDES,  VSET,      SHMX,      TRMX,   VTMN,   VTMX,   VSMX,      IMX,     LINX,   RMPCT,OWNER,    SET1,      SET2,VSREF, FCREG,   'MNAME'    ,NREG
0 / END OF FACTS DEVICE DATA, BEGIN SWITCHED SHUNT DATA
@!  I,MODSW,ADJM,ST, VSWHI,  VSWLO, SWREG,  RMPCT,   'RMIDNT',      BINIT,N1,     B1, N2,     B2, N3,     B3, N4,     B4, N5,     B5, N6,     B6, N7,     B7, N8,     B8, NREG
0 / END OF SWITCHED SHUNT DATA, BEGIN GNE DATA
@!  'NAME',        'MODEL',     NTERM,BUS1...BUSNTERM,NREAL,NINTG,NCHAR
@!ST,OWNER,NMETR
@! REAL1...REAL(MIN(10,NREAL))
@! INTG1...INTG(MIN(10,NINTG))
@! CHAR1...CHAR(MIN(10,NCHAR))
0 / END OF GNE DATA, BEGIN INDUCTION MACHINE DATA
@!   I,'ID',ST,SC,DC,AREA,ZONE,OWNER,TC,BC,  MBASE, RATEKV,PC,  PSET,      H,       A,       B,       D,       E,     RA,        XA,        XM,        R1,        X1,        R2,        X2,        X3,       E1,    SE1,   E2,    SE2,   IA1,   IA2, XAMULT
0 / END OF INDUCTION MACHINE DATA, BEGIN SUBSTATION DATA
0 / END OF SUBSTATION DATA
Q
